@<TRIPOS>MOLECULE
F:LIG1_AB
    22    22     1     0     0
SMALL
USER_CHARGES
****
Generated from the CSD

@<TRIPOS>ATOM
     1 N       -0.1964   4.0497   5.1029   N.3       1 LIG1  16.9890
     2 C        1.8676   5.1667   4.1809   C.3       1 LIG1  17.2660
     3 C1       0.6317   5.2977   5.0859   C.3       1 LIG1  17.4144
     4 C2      -1.3584   4.1267   4.1469   C.3       1 LIG1  18.7286
     5 C3      -2.0915   2.8378   4.0369   C.2       1 LIG1  18.7286
     6 C4      -3.1556   2.5008   3.1749   C.2       1 LIG1  18.7286
     7 C5      -4.4437   0.3189   2.8330   C.3       1 LIG1  18.5453
     8 N1      -3.4486   1.1558   3.4889   N.pl3     1 LIG1  18.7219
     9 N2      -2.5956   0.7328   4.4949   N.2       1 LIG1  20.2430
    10 N3      -1.7975   1.7038   4.8189   N.2       1 LIG1  20.2430
    11 H1      -0.5542   3.9072   6.0420   H         1 LIG1   0.0000
    12 H2       1.5497   4.9595   3.1602   H         1 LIG1   0.0000
    13 H3       2.4339   6.0966   4.2030   H         1 LIG1   0.0000
    14 H4       2.4946   4.3513   4.5385   H         1 LIG1   0.0000
    15 H5       0.9624   5.5122   6.1011   H         1 LIG1   0.0000
    16 H6       0.0175   6.1204   4.7227   H         1 LIG1   0.0000
    17 H7      -0.9828   4.4001   3.1620   H         1 LIG1   0.0000
    18 H8      -2.0489   4.8924   4.4975   H         1 LIG1   0.0000
    19 H9      -3.6413   3.1347   2.4346   H         1 LIG1   0.0000
    20 H10     -4.2028   0.2303   1.7746   H         1 LIG1   0.0000
    21 H11     -4.4440  -0.6700   3.2892   H         1 LIG1   0.0000
    22 H12     -5.4284   0.7705   2.9445   H         1 LIG1   0.0000
@<TRIPOS>BOND
     1     1     3    1
     2     1     4    1
     3     2     3    1
     4     4     5    1
     5     5     6    2
     6     5    10    1
     7     6     8    1
     8     7     8    1
     9     8     9    1
    10     9    10    2
    11     1    11    1
    12     2    12    1
    13     2    13    1
    14     2    14    1
    15     3    15    1
    16     3    16    1
    17     4    17    1
    18     4    18    1
    19     6    19    1
    20     7    20    1
    21     7    21    1
    22     7    22    1
@<TRIPOS>SUBSTRUCTURE
     1 LIG1        1 GROUP             0 F     LIG     0  
