@<TRIPOS>MOLECULE
E:LIG1
    31    32     1     0     0
SMALL
NO_CHARGES
****
Generated from the CSD

@<TRIPOS>ATOM
     1 N      -16.7705 -13.4497  -3.5791   N.pl3     1 LIG1   0.0000
     2 C      -16.1867 -12.2256  -3.1031   C.3       1 LIG1   0.0000
     3 O      -17.3301 -16.1759  -6.8972   O.2       1 LIG1   0.0000
     4 C1     -16.2834 -14.1587  -4.6292   C.2       1 LIG1   0.0000
     5 C2     -17.0883 -15.2628  -4.7492   C.2       1 LIG1   0.0000
     6 C3     -16.8682 -16.2709  -5.7612   C.2       1 LIG1   0.0000
     7 C4     -18.1024 -15.1648  -3.6991   C.2       1 LIG1   0.0000
     8 C5     -19.2543 -16.0888  -3.3411   C.3       1 LIG1   0.0000
     9 C6     -19.2632 -17.4519  -4.0691   C.3       1 LIG1   0.0000
    10 C7     -20.3371 -18.3459  -3.4411   C.3       1 LIG1   0.0000
    11 C8     -21.7131 -17.6729  -3.6021   C.3       1 LIG1   0.0000
    12 C9     -20.6063 -15.4478  -3.6591   C.3       1 LIG1   0.0000
    13 N1     -16.0711 -17.3599  -5.4052   N.am      1 LIG1   0.0000
    14 N2     -17.8685 -14.0167  -2.9831   N.2       1 LIG1   0.0000
    15 N3     -21.7403 -16.2568  -3.1591   N.3       1 LIG1   0.0000
    16 H1     -16.1978 -11.4840  -3.9005   H         1 LIG1   0.0000
    17 H2     -16.7607 -11.8554  -2.2549   H         1 LIG1   0.0000
    18 H3     -15.1591 -12.4100  -2.7933   H         1 LIG1   0.0000
    19 H4     -15.4267 -13.9027  -5.2507   H         1 LIG1   0.0000
    20 H5     -19.2144 -16.2786  -2.2695   H         1 LIG1   0.0000
    21 H6     -18.2882 -17.9263  -3.9678   H         1 LIG1   0.0000
    22 H7     -19.4853 -17.3007  -5.1245   H         1 LIG1   0.0000
    23 H8     -20.1215 -18.4858  -2.3829   H         1 LIG1   0.0000
    24 H9     -20.3439 -19.3133  -3.9412   H         1 LIG1   0.0000
    25 H10    -22.4398 -18.2311  -3.0137   H         1 LIG1   0.0000
    26 H11    -21.9927 -17.7094  -4.6540   H         1 LIG1   0.0000
    27 H12    -20.6995 -15.3432  -4.7391   H         1 LIG1   0.0000
    28 H13    -20.6458 -14.4637  -3.1944   H         1 LIG1   0.0000
    29 H14    -15.6953 -17.4278  -4.4648   H         1 LIG1   0.0000
    30 H15    -15.8673 -18.0839  -6.0867   H         1 LIG1   0.0000
    31 H16    -21.7218 -16.2394  -2.1444   H         1 LIG1   0.0000
@<TRIPOS>BOND
     1     1     2    1
     2     1     4    1
     3     1    14    1
     4     3     6    2
     5     4     5    2
     6     5     6    1
     7     5     7    1
     8     6    13   am
     9     7     8    1
    10     7    14    2
    11     8     9    1
    12     8    12    1
    13     9    10    1
    14    10    11    1
    15    11    15    1
    16    12    15    1
    17     2    16    1
    18     2    17    1
    19     2    18    1
    20     4    19    1
    21     8    20    1
    22     9    21    1
    23     9    22    1
    24    10    23    1
    25    10    24    1
    26    11    25    1
    27    11    26    1
    28    12    27    1
    29    12    28    1
    30    13    29    1
    31    13    30    1
    32    15    31    1
@<TRIPOS>SUBSTRUCTURE
     1 LIG1        1 GROUP             0 E     LIG     0  
