@<TRIPOS>MOLECULE
F:LIG1
    25    26     1     0     0
SMALL
NO_CHARGES
****
Generated from the CSD

@<TRIPOS>ATOM
     1 N      -17.2876 -13.2997  -2.6621   N.2       1 LIG1   0.0000
     2 C      -19.3540 -17.8516  -8.0813   C.3       1 LIG1   0.0000
     3 O      -18.1030 -17.4966  -7.4522   O.3       1 LIG1   0.0000
     4 C1     -18.1329 -16.7006  -6.3182   C.ar      1 LIG1   0.0000
     5 C2     -19.0229 -17.0136  -5.2352   C.ar      1 LIG1   0.0000
     6 C3     -19.0008 -16.2376  -4.0861   C.ar      1 LIG1   0.0000
     7 C4     -18.0967 -15.1546  -4.0011   C.ar      1 LIG1   0.0000
     8 C5     -18.0686 -14.3356  -2.8181   C.2       1 LIG1   0.0000
     9 C6     -16.3107 -13.6287  -4.9052   C.2       1 LIG1   0.0000
    10 C7     -17.2128 -14.8166  -5.0682   C.ar      1 LIG1   0.0000
    11 C8     -17.2518 -15.6036  -6.2492   C.ar      1 LIG1   0.0000
    12 C9     -15.1569 -15.6956  -7.3732   C.3       1 LIG1   0.0000
    13 N1     -16.4486 -12.9467  -3.6311   N.am      1 LIG1   0.0000
    14 O1     -15.5067 -13.1607  -5.7152   O.2       1 LIG1   0.0000
    15 O2     -16.5089 -15.2676  -7.4012   O.3       1 LIG1   0.0000
    16 H1     -19.8738 -16.9465  -8.3919   H         1 LIG1   0.0000
    17 H2     -19.1582 -18.4749  -8.9525   H         1 LIG1   0.0000
    18 H3     -19.9731 -18.4010  -7.3736   H         1 LIG1   0.0000
    19 H4     -19.7102 -17.8544  -5.3158   H         1 LIG1   0.0000
    20 H5     -19.6726 -16.4602  -3.2585   H         1 LIG1   0.0000
    21 H6     -18.7406 -14.5956  -2.0015   H         1 LIG1   0.0000
    22 H7     -15.1213 -16.7799  -7.2780   H         1 LIG1   0.0000
    23 H8     -14.6621 -15.3959  -8.2958   H         1 LIG1   0.0000
    24 H9     -14.6493 -15.2398  -6.5244   H         1 LIG1   0.0000
    25 H10    -15.8585 -12.1372  -3.4674   H         1 LIG1   0.0000
@<TRIPOS>BOND
     1     1     8    2
     2     1    13    1
     3     2     3    1
     4     3     4    1
     5     4     5   ar
     6     4    11   ar
     7     5     6   ar
     8     6     7   ar
     9     7     8    1
    10     7    10   ar
    11     9    10    1
    12     9    13   am
    13     9    14    2
    14    10    11   ar
    15    11    15    1
    16    12    15    1
    17     2    16    1
    18     2    17    1
    19     2    18    1
    20     5    19    1
    21     6    20    1
    22     8    21    1
    23    12    22    1
    24    12    23    1
    25    12    24    1
    26    13    25    1
@<TRIPOS>SUBSTRUCTURE
     1 LIG1        1 GROUP             0 F     LIG     0  
@<TRIPOS>MOLECULE
F:LIG2
    25    26     1     0     0
SMALL
NO_CHARGES
****
Generated from the CSD

@<TRIPOS>ATOM
     1 N      -22.5713  26.9228 -59.6130   N.2       1 LIG2   0.0000
     2 C      -20.6909  31.4477 -54.1338   C.3       1 LIG2   0.0000
     3 O      -21.9319  30.9557 -54.6458   O.3       1 LIG2   0.0000
     4 C1     -21.9260  30.2747 -55.8529   C.ar      1 LIG2   0.0000
     5 C2     -21.4410  30.8957 -57.0509   C.ar      1 LIG2   0.0000
     6 C3     -21.4860  30.1857 -58.2669   C.ar      1 LIG2   0.0000
     7 C4     -22.0121  28.8687 -58.2829   C.ar      1 LIG2   0.0000
     8 C5     -22.0932  28.1318 -59.5120   C.2       1 LIG2   0.0000
     9 C6     -23.0672  26.8708 -57.1839   C.2       1 LIG2   0.0000
    10 C7     -22.5001  28.2418 -57.0939   C.ar      1 LIG2   0.0000
    11 C8     -22.4511  28.9678 -55.8799   C.ar      1 LIG2   0.0000
    12 C9     -21.9981  27.8108 -53.8648   C.3       1 LIG2   0.0000
    13 N1     -23.0483  26.2968 -58.5089   N.am      1 LIG2   0.0000
    14 O1     -23.5892  26.2058 -56.2819   O.2       1 LIG2   0.0000
    15 O2     -22.9490  28.4628 -54.6998   O.3       1 LIG2   0.0000
    16 H1     -20.2565  32.1479 -54.8458   H         1 LIG2   0.0000
    17 H2     -20.8648  31.9548 -53.1859   H         1 LIG2   0.0000
    18 H3     -20.0061  30.6151 -53.9797   H         1 LIG2   0.0000
    19 H4     -21.0409  31.9081 -57.0210   H         1 LIG2   0.0000
    20 H5     -21.1207  30.6434 -59.1851   H         1 LIG2   0.0000
    21 H6     -21.7319  28.6137 -60.4192   H         1 LIG2   0.0000
    22 H7     -21.2125  28.5138 -53.5917   H         1 LIG2   0.0000
    23 H8     -22.4926  27.4510 -52.9637   H         1 LIG2   0.0000
    24 H9     -21.5617  26.9689 -54.4002   H         1 LIG2   0.0000
    25 H10    -23.4182  25.3584 -58.6217   H         1 LIG2   0.0000
@<TRIPOS>BOND
     1     1     8    2
     2     1    13    1
     3     2     3    1
     4     3     4    1
     5     4     5   ar
     6     4    11   ar
     7     5     6   ar
     8     6     7   ar
     9     7     8    1
    10     7    10   ar
    11     9    10    1
    12     9    13   am
    13     9    14    2
    14    10    11   ar
    15    11    15    1
    16    12    15    1
    17     2    16    1
    18     2    17    1
    19     2    18    1
    20     5    19    1
    21     6    20    1
    22     8    21    1
    23    12    22    1
    24    12    23    1
    25    12    24    1
    26    13    25    1
@<TRIPOS>SUBSTRUCTURE
     1 LIG2        1 GROUP             0 F     LIG     0  
@<TRIPOS>MOLECULE
F:LIG3
    25    26     1     0     0
SMALL
NO_CHARGES
****
Generated from the CSD

@<TRIPOS>ATOM
     1 N       -2.8578   0.6020   4.3141   N.2       1 LIG3   0.0000
     2 C       -0.0494   7.3138   3.4081   C.3       1 LIG3   0.0000
     3 O       -1.3684   6.9318   3.8151   O.3       1 LIG3   0.0000
     4 C1      -1.5325   5.5599   4.0831   C.ar      1 LIG3   0.0000
     5 C2      -0.8245   4.9869   5.1782   C.ar      1 LIG3   0.0000
     6 C3      -0.9706   3.6289   5.4472   C.ar      1 LIG3   0.0000
     7 C4      -1.8417   2.8200   4.6422   C.ar      1 LIG3   0.0000
     8 C5      -2.0487   1.4220   4.9722   C.2       1 LIG3   0.0000
     9 C6      -3.4507   2.4060   2.7631   C.2       1 LIG3   0.0000
    10 C7      -2.5606   3.3489   3.5331   C.ar      1 LIG3   0.0000
    11 C8      -2.3916   4.7669   3.2511   C.ar      1 LIG3   0.0000
    12 C9      -4.4065   5.6869   2.2721   C.3       1 LIG3   0.0000
    13 N1      -3.5218   1.0710   3.2571   N.am      1 LIG3   0.0000
    14 O1      -4.1037   2.6069   1.7551   O.2       1 LIG3   0.0000
    15 O2      -2.9925   5.4089   2.1731   O.3       1 LIG3   0.0000
    16 H1       0.2168   6.7830   2.4953   H         1 LIG3   0.0000
    17 H2      -0.0226   8.3870   3.2250   H         1 LIG3   0.0000
    18 H3       0.6604   7.0619   4.1946   H         1 LIG3   0.0000
    19 H4      -0.1761   5.6043   5.7981   H         1 LIG3   0.0000
    20 H5      -0.4214   3.1780   6.2724   H         1 LIG3   0.0000
    21 H6      -1.5004   1.0168   5.8213   H         1 LIG3   0.0000
    22 H7      -4.5907   6.3297   3.1315   H         1 LIG3   0.0000
    23 H8      -4.7423   6.1879   1.3654   H         1 LIG3   0.0000
    24 H9      -4.9525   4.7525   2.3940   H         1 LIG3   0.0000
    25 H10     -4.1280   0.4236   2.7635   H         1 LIG3   0.0000
@<TRIPOS>BOND
     1     1     8    2
     2     1    13    1
     3     2     3    1
     4     3     4    1
     5     4     5   ar
     6     4    11   ar
     7     5     6   ar
     8     6     7   ar
     9     7     8    1
    10     7    10   ar
    11     9    10    1
    12     9    13   am
    13     9    14    2
    14    10    11   ar
    15    11    15    1
    16    12    15    1
    17     2    16    1
    18     2    17    1
    19     2    18    1
    20     5    19    1
    21     6    20    1
    22     8    21    1
    23    12    22    1
    24    12    23    1
    25    12    24    1
    26    13    25    1
@<TRIPOS>SUBSTRUCTURE
     1 LIG3        1 GROUP             0 F     LIG     0  
@<TRIPOS>MOLECULE
F:LIG4
    25    26     1     0     0
SMALL
NO_CHARGES
****
Generated from the CSD

@<TRIPOS>ATOM
     1 N      -26.9756   6.7993 -63.9911   N.2       1 LIG4   0.0000
     2 C      -31.9909   1.6564 -65.8542   C.3       1 LIG4   0.0000
     3 O      -31.6948   2.3814 -64.6321   O.3       1 LIG4   0.0000
     4 C1     -30.5668   3.2034 -64.5851   C.ar      1 LIG4   0.0000
     5 C2     -29.3259   2.6904 -65.0602   C.ar      1 LIG4   0.0000
     6 C3     -28.1908   3.4934 -65.0802   C.ar      1 LIG4   0.0000
     7 C4     -28.2507   4.7974 -64.5921   C.ar      1 LIG4   0.0000
     8 C5     -27.0467   5.5963 -64.5331   C.2       1 LIG4   0.0000
     9 C6     -29.4066   6.7143 -63.4621   C.2       1 LIG4   0.0000
    10 C7     -29.4617   5.3523 -64.0661   C.ar      1 LIG4   0.0000
    11 C8     -30.6547   4.5534 -64.0861   C.ar      1 LIG4   0.0000
    12 C9     -32.7966   4.3814 -62.9311   C.3       1 LIG4   0.0000
    13 N1     -28.1025   7.3363 -63.4831   N.am      1 LIG4   0.0000
    14 O1     -30.3065   7.3433 -62.9301   O.2       1 LIG4   0.0000
    15 O2     -31.8716   5.1384 -63.7001   O.3       1 LIG4   0.0000
    16 H1     -31.1611   0.9927 -66.0926   H         1 LIG4   0.0000
    17 H2     -32.8977   1.0692 -65.7172   H         1 LIG4   0.0000
    18 H3     -32.1360   2.3635 -66.6696   H         1 LIG4   0.0000
    19 H4     -29.2655   1.6611 -65.4105   H         1 LIG4   0.0000
    20 H5     -27.2549   3.1032 -65.4773   H         1 LIG4   0.0000
    21 H6     -26.1380   5.1787 -64.9642   H         1 LIG4   0.0000
    22 H7     -32.3311   4.0845 -61.9924   H         1 LIG4   0.0000
    23 H8     -33.6776   4.9870 -62.7237   H         1 LIG4   0.0000
    24 H9     -33.0900   3.4926 -63.4879   H         1 LIG4   0.0000
    25 H10    -28.0283   8.2638 -63.0776   H         1 LIG4   0.0000
@<TRIPOS>BOND
     1     1     8    2
     2     1    13    1
     3     2     3    1
     4     3     4    1
     5     4     5   ar
     6     4    11   ar
     7     5     6   ar
     8     6     7   ar
     9     7     8    1
    10     7    10   ar
    11     9    10    1
    12     9    13   am
    13     9    14    2
    14    10    11   ar
    15    11    15    1
    16    12    15    1
    17     2    16    1
    18     2    17    1
    19     2    18    1
    20     5    19    1
    21     6    20    1
    22     8    21    1
    23    12    22    1
    24    12    23    1
    25    12    24    1
    26    13    25    1
@<TRIPOS>SUBSTRUCTURE
     1 LIG4        1 GROUP             0 F     LIG     0  
